--################################################################
-- CAES simulation at a synthetic field site
-- Aim: first try with "real" storage schedules
--################################################################


--################################################################
RUNSPEC
--################################################################

TITLE
   SynthAnti_CAES_9W

DIMENS
   120 120 50 /

START
1 'JAN' 2018 /

METRIC

WATER
GAS

COMPS
4 /

--GASSOL
--3 /

REGDIMS
-- Maximum Number of FIP(fluild-in-place) Regions
-- Number of sets of FIP Regions
-- Maximum Number of Independent Reservoir Regions
-- Maximum Number of Flux Regions
-- NTFIP NMFIPR NRFREG NTFREG
8 8 0 0 /

TABDIMS
-- Number of Saturation Tables(NTSFUN)
-- Number of PVT Tables (NTPVT)
-- Maximum Number of Saturation Nodes in Saturation tables
-- Maximum Number of Pressure Nodes in PVT tables
-- Maximum Number of FIP regions (NTFIP)
-- SATNUM  PVTNUM  NSSFUN  NPPVT  FIPNUM  
4 1 4000 100 8 /

WELLDIMS
-- maximum number of wells
-- maximum number of connections per well (that is the maximum number of grid blocks connected to any one well)
-- maximum number of groups
-- maximum number of wells in any one group (or child groups in a group)
-- The maximum number of stages per separator, including the last stage, which represents the stock tank
-- The maximum number of well streams (WELLSTRE)
15 50 1 1 5 15 /

-- Linear solver stack size
NSTACK
200/

-- un-comment for formatted I/O
FMTIN
FMTOUT
	
-- Request output for run-time monitoring, by default, it is always on
MONITOR

-- Request a restart index file
RSSPEC

--Indicates that summary output files are unified
UNIFOUTS

-- Disables the initial index file output
-- NOINSPEC

--The fully implicit solution option
FULLIMP

MSGFILE
1 /

PARALLEL
4 DISTRIBUTED /

--################################################################
GRID
--################################################################

GRIDFILE
2 0 /

-- Output of Summary data (GRID PROPS REGIONS)
INIT

INCLUDE
'SyntheticAnticlineGrid_v1.inc'
/

EQUALS
------IR1-IR2  JT1-JT2  KZ1-KZ2  120 120 50
ACTNUM  0		1	  120	 1    120	1	5/   --Overburden 4
ACTNUM  0		1	  120	 1    120	6	10/  --Overburden 3
ACTNUM  1		1	  120	 1    120	11	13/  --Overburden 2
ACTNUM  1		1	  120	 1    120	14	16/  --Overburden 1
ACTNUM  1		1	  120	 1    120	17	41/  --Storage FM
ACTNUM  1		1	  120	 1    120	42	44/  --Underburden 1
ACTNUM  0       1	  120	 1    120	45	47/  --Underburden 2
ACTNUM  0		1	  120	 1    120	48	50/  --Underburden 3

-- Overburden 4: tertiary reservoir seal
PERMX   0.00001	1	  120	 1    120	1	5/
PERMY   0.00001 1	  120	 1    120	1	5/
PERMZ   0.00001	1	  120	 1    120	1	5/
PORO    0.05    1	  120	 1    120	1	5/

-- Overburden 3: secondary reservoir seal
PERMX   0.0001	1	  120	 1    120	6	10/
PERMY   0.0001	1	  120	 1    120	6	10/
PERMZ   0.0001	1	  120	 1    120	6	10/
PORO    0.10	1	  120	 1    120	6	10/

-- Overburden 2: intermediate low perm. fm
PERMX   50.0	1	  120	 1    120	11	13/
PERMY   50.0	1	  120	 1    120	11	13/
PERMZ   50.0	1	  120	 1    120	11	13/
PORO    0.20	1	  120	 1    120	11	13/

-- Overburden 1: primary reservoir seal
PERMX   0.00001	1	  120	 1    120	14	16/
PERMY   0.00001 1	  120	 1    120	14	16/
PERMZ   0.00001	1	  120	 1    120	14	16/
PORO    0.05    1	  120	 1    120	14	16/

-- Storage FM: storage
PERMX   1000.0	1	  120	 1    120	17	41/
PERMY   1000.0	1	  120	 1    120	17	41/
PERMZ   1000.0	1	  120	 1    120	17	41/
PORO    0.35    1	  120	 1    120	17	41/

-- Underburden 1: primary reservoir seal
PERMX   0.00001	1	  120	 1    120	42	44/
PERMY   0.00001 1	  120	 1    120	42	44/
PERMZ   0.00001	1	  120	 1    120	42	44/
PORO    0.05    1	  120	 1    120	42	44/

-- Underburden 2: secondary reservoir seal
PERMX   0.00001	1	  120	 1    120	45	47/
PERMY   0.00001 1	  120	 1    120	45	47/
PERMZ   0.00001	1	  120	 1    120	45	47/
PORO    0.05    1	  120	 1    120	45	47/

-- Underburden 3: tertiary reservoir seal
PERMX   0.00001	1	  120	 1    120	48	50/
PERMY   0.00001 1	  120	 1    120	48	50/
PERMZ   0.00001	1	  120	 1    120	48	50/
PORO    0.05    1	  120	 1    120	48	50/
/ 

--################################################################
EDIT
--################################################################
EQUALS
PORV 10000000000000 120 120 1   120   1   50/
PORV 10000000000000 1   1   1   120   1   50/
PORV 10000000000000 2	119 1     1   1   50/
PORV 10000000000000 2	119 120 120   1   50/
/

--################################################################
PROPS
--################################################################

CNAMES
H2O N2 O2 Ar/

EOS
-- Equation of state is being used in the compositional mode
PR /

ZMFVD
-- Specifies cell initial total composition explicitly
-- Depth, Mole Fraction of Components 
0		0.0	0.78	0.21	0.01
1000	0.0	0.78	0.21	0.01/

TEMPVD
-- Temperature versus depth data
-- rate:25°C each 1KM
-- Depth, Temperature
0	    15.56
100	    18.06
500	    28.06
1000	40.56
2000	65.56
/ 


STCOND
-- Standard temperature and pressure
-- [°C] [Bar]
15.56 1.01325 /

PVTW
-- P   		Bw   			Cw			Mueh_w
--[bar]		[Rm3/Sm3]		[1/bar]		[cP]   
101			1.017894632		4.5012E-5	0.79708/

DENSITY
-- for COMP run only water is needed
-- @ 15 Degree & 1 bar
-- Oil Density    Water Density   N2 Density 
	1*	1000	1*/

ROCK
--reference pressure    rock compressibility  
	1.0	0.000045	/

TCRIT
-- critical temperatures of each component [K]
-- Water   N2     O2       Ar
647.096	126.192	154.581	150.687/

PCRIT
-- critical pressures [bar]
-- Water   N2     O2       Ar
220.6	33.95	50.43	48.63/

VCRIT
-- Water        N2         O2          Ar
0.000056	0.0000895	0.0000734	0.0000746/

MW
-- molecular weights [kg/kg-M]
-- Water	  N2 	    O2       Ar
18.01529	28.0134	31.9988	39.948/

ACF
-- taken from Gasem et al. 2001
-- Water	N2	O2	Ar
0.329	0.039	0.022	-0.002
/

BIC
-- to check
0.0	
/

SWFN
0.60	0.00000000	5023.77286302
0.62	0.01788854	38.07307877
0.64	0.10119289	28.85399812
0.66	0.27885480	24.53406409
0.68	0.57243340	21.86724148
0.70	1.00000000	20.00000000
1.00	1.00000000	20.00000000
/
0.60	0.00000000	2511.88643151
0.62	0.01788854	19.03653939
0.64	0.10119289	14.42699906
0.66	0.27885480	12.26703205
0.68	0.57243340	10.93362074
0.70	1.00000000	10.00000000
1.00	1.00000000	10.00000000
/
0.40	0.00000000	239.08812495
0.42	0.00032000	1.81194916
0.44	0.00181019	1.37320068
0.46	0.00498831	1.16760919
0.48	0.01024000	1.04069151
0.50	0.01788854	0.95182697
0.52	0.02821812	0.88488230
0.54	0.04148538	0.83196832
0.56	0.05792619	0.78869668
0.58	0.07776000	0.75240038
0.60	0.10119289	0.72134995
0.62	0.12841971	0.69436678
0.64	0.15962580	0.67061538
0.66	0.19498821	0.64948431
0.68	0.23467675	0.63051409
0.70	0.27885480	0.61335160
0.72	0.32768000	0.59772031
0.74	0.38130481	0.58340002
0.76	0.43987699	0.57021286
0.78	0.50354001	0.55801332
0.80	0.57243340	0.54668104
0.82	0.64669308	0.53611541
0.84	0.72645159	0.52623161
0.86	0.81183836	0.51695754
0.88	0.90297990	0.50823142
0.90	1.00000000	0.50000000
1.00	1.00000000	0.50000000
/
0.20	0.00000000	54.70653597
0.22	0.00013798	0.41459801
0.24	0.00078056	0.31420654
0.26	0.00215096	0.26716448
0.28	0.00441550	0.23812403
0.30	0.00771356	0.21779064
0.32	0.01216769	0.20247281
0.34	0.01788854	0.19036539
0.36	0.02497784	0.18046427
0.38	0.03353020	0.17215919
0.40	0.04363449	0.16505444
0.42	0.05537473	0.15888033
0.44	0.06883083	0.15344570
0.46	0.08407914	0.14861063
0.48	0.10119289	0.14426999
0.50	0.12024251	0.14034299
0.52	0.14129599	0.13676634
0.54	0.16441907	0.13348967
0.56	0.18967546	0.13047227
0.58	0.21712703	0.12768085
0.60	0.24683394	0.12508788
0.62	0.27885480	0.12267032
0.64	0.31324676	0.12040878
0.66	0.35006563	0.11828675
0.68	0.38936597	0.11629009
0.70	0.43120115	0.11440664
0.72	0.47562345	0.11262580
0.74	0.52268411	0.11093835
0.76	0.57243340	0.10933621
0.78	0.62492066	0.10781223
0.80	0.68019436	0.10636009
0.82	0.73830213	0.10497419
0.84	0.79929084	0.10364950
0.86	0.86320657	0.10238154
0.88	0.93009473	0.10116625
0.90	1.00000000	0.10000000
1.00	1.00000000	0.10000000
/

SGFN
0.00	0.00000000  0.00000000
0.30	0.00000001	0.00000000
0.32	0.00178885	0.00000000
0.34	0.01011929	0.00000000
0.36	0.02788548	0.00000000
0.38	0.05724334	0.00000000
0.40	0.10000000	0.00000000
/
0.00	0.00000000  0.00000000
0.30	0.00000001	0.00000000
0.32	0.00357771	0.00000000
0.34	0.02023858	0.00000000
0.36	0.05577096	0.00000000
0.38	0.11448668	0.00000000
0.40	0.20000000	0.00000000
/
0.00	0.00000000  0.00000000
0.10	0.00000001	0.00000000
0.12	0.00009600	0.00000000
0.14	0.00054306	0.00000000
0.16	0.00149649	0.00000000
0.18	0.00307200	0.00000000
0.20	0.00536656	0.00000000
0.22	0.00846544	0.00000000
0.24	0.01244561	0.00000000
0.26	0.01737786	0.00000000
0.28	0.02332800	0.00000000
0.30	0.03035787	0.00000000
0.32	0.03852591	0.00000000
0.34	0.04788774	0.00000000
0.36	0.05849646	0.00000000
0.38	0.07040303	0.00000000
0.40	0.08365644	0.00000000
0.42	0.09830400	0.00000000
0.44	0.11439144	0.00000000
0.46	0.13196310	0.00000000
0.48	0.15106200	0.00000000
0.50	0.17173002	0.00000000
0.52	0.19400792	0.00000000
0.54	0.21793548	0.00000000
0.56	0.24355151	0.00000000
0.58	0.27089397	0.00000000
0.60	0.30000000	0.00000000
/
0.00	0.00000000  0.00000000
0.10	0.00000001	0.00000000
0.12	0.00006899	0.00000000
0.14	0.00039028	0.00000000
0.16	0.00107548	0.00000000
0.18	0.00220775	0.00000000
0.20	0.00385678	0.00000000
0.22	0.00608384	0.00000000
0.24	0.00894427	0.00000000
0.26	0.01248892	0.00000000
0.28	0.01676510	0.00000000
0.30	0.02181724	0.00000000
0.32	0.02768736	0.00000000
0.34	0.03441541	0.00000000
0.36	0.04203957	0.00000000
0.38	0.05059644	0.00000000
0.40	0.06012126	0.00000000
0.42	0.07064800	0.00000000
0.44	0.08220954	0.00000000
0.46	0.09483773	0.00000000
0.48	0.10856351	0.00000000
0.50	0.12341697	0.00000000
0.52	0.13942740	0.00000000
0.54	0.15662338	0.00000000
0.56	0.17503282	0.00000000
0.58	0.19468299	0.00000000
0.60	0.21560058	0.00000000
0.62	0.23781173	0.00000000
0.64	0.26134206	0.00000000
0.66	0.28621670	0.00000000
0.68	0.31246033	0.00000000
0.70	0.34009718	0.00000000
0.72	0.36915107	0.00000000
0.74	0.39964542	0.00000000
0.76	0.43160329	0.00000000
0.78	0.46504736	0.00000000
0.80	0.50000000	0.00000000
/

SOF3
--Oil saturation functions
0	0	0/
0	0	0/
0	0	0/
0	0	0/


FACTLI
0.98/

--################################################################
REGIONS
--################################################################
-- Overburden 4: tertiary reservoir seal
BOX
	1	120	 1    120	1	5/
FIPNUM
	72000*1/
ENDBOX
-- Overburden 3: secondary reservoir seal
BOX
	1	120	 1    120	6	10/
FIPNUM
	72000*2/
ENDBOX
-- Overburden 2: intermediate low perm. fm
BOX
	1	120	 1    120	11	13/
FIPNUM
	43200*3/
ENDBOX
-- Overburden 1: primary reservoir seal
BOX
	1	120	 1    120	14	16/
FIPNUM
	43200*4/
ENDBOX
-- Storage FM: storage
BOX
	1	120	 1    120	17	41/
FIPNUM
	360000*5/
ENDBOX
-- Underburden 1: primary reservoir seal
BOX
	1	120	 1    120	42	44/
FIPNUM
	43200*6/
ENDBOX
-- Underburden 2: secondary reservoir seal
BOX
	1	120	 1    120	45	47/
FIPNUM
	43200*7/
ENDBOX
-- Underburden 3: tertiary reservoir seal
BOX
	1	120	 1    120	48	50/
FIPNUM
	43200*8/
ENDBOX

-- SATNUM DATA
-- Overburden 4,1 & Underburden 1,2,3: SATNUM 1
-- Overburden 3: SATNUM 2
-- Overburden 2: SATNUM 3
-- STORAGE FM: SATNUM 4
SATNUM
72000*1	72000*2 43200*3 43200*1 360000*4 43200*1 43200*1 43200*1/

--################################################################
SOLUTION
--################################################################

EQUIL
720 50 800/


--################################################################
SUMMARY
--################################################################
DATE
EXCEL
RUNSUM

-- gas inj rate
WGIR
'Well_c' 'Well_n' 'Well_ne' 'Well_e' 'Well_se' 'Well_s' 'Well_sw' 'Well_w' 'Well_nw'/

-- gas inj total
WGIT
'Well_c' 'Well_n' 'Well_ne' 'Well_e' 'Well_se' 'Well_s' 'Well_sw' 'Well_w' 'Well_nw'/

-- bottom hole pressure
WBHP
'Well_c' 'Well_n' 'Well_ne' 'Well_e' 'Well_se' 'Well_s' 'Well_sw' 'Well_w' 'Well_nw'/

-- gas density at surf
WGDN
'Well_c' 'Well_n' 'Well_ne' 'Well_e' 'Well_se' 'Well_s' 'Well_sw' 'Well_w' 'Well_nw'/

-- well water prod rate
WWPR
'Well_c' 'Well_n' 'Well_ne' 'Well_e' 'Well_se' 'Well_s' 'Well_sw' 'Well_w' 'Well_nw'/
 
-- well wat prod tot
WWPT
'Well_c' 'Well_n' 'Well_ne' 'Well_e' 'Well_se' 'Well_s' 'Well_sw' 'Well_w' 'Well_nw'/
 
-- well gas prod rate
WGPR
'Well_c' 'Well_n' 'Well_ne' 'Well_e' 'Well_se' 'Well_s' 'Well_sw' 'Well_w' 'Well_nw'/
 
-- well gas prod tot
WGPT
'Well_c' 'Well_n' 'Well_ne' 'Well_e' 'Well_se' 'Well_s' 'Well_sw' 'Well_w' 'Well_nw'/
 
-- well gas mol frac comp 
WYMF
'Well_c' /
'Well_n' /
'Well_ne' /
'Well_e' /
'Well_se' /
'Well_s' /
'Well_sw' /
'Well_w' /
'Well_nw'/
/

-- well liq mol frac comp 
WXMF
'Well_c' /
'Well_n' /
'Well_ne' /
'Well_e' /
'Well_se' /
'Well_s' /
'Well_sw' /
'Well_w' /
'Well_nw'/
/

-- well tot mol frac comp 
WZMF
'Well_c' /
'Well_n' /
'Well_ne' /
'Well_e' /
'Well_se' /
'Well_s' /
'Well_sw' /
'Well_w' /
'Well_nw'/
/

RGIP
/
RGSAT
/
FWIP

-- average water sat
FWSAT
-- inter region gas flow rate
RGFR
5 4 /
4 3 /
5 6 /
/

-- inter region gas flow total
RGFT
5 4 /
4 3 /
5 6 /
/
-- inter region wat flow rate
RWFR
5 4 /
4 3 /
5 6 /
/
-- inter region wat flow total
RWFT
5 4 /
4 3 /
5 6 /
/

BPR
70	60	19 /
80	60	19 /
110	60	19 /
111	60	19 /
112	60	19 /
113	60	19 /
114	60	19 /
/

BGSAT
70	60	19 /
80	60	19 /
110	60	19 /
111	60	19 /
112	60	19 /
113	60	19 /
114	60	19 /
/

--################################################################
SCHEDULE
--################################################################

MESSAGES
 2* 100000000 10000000 4* 100000000 100000000 2* /
 
RPTRST
BASIC=3 FREQ=1 PRES PWAT PGAS SGAS SWAT FLORES FLOGAS FLOWAT TEMP
DENG DENW BG BW YMF YFW XMF XFW ZMF/


ZIPPY2
'SIM=20.1' 'MINSTEP=0.0000001' 'AGGRESSIVE=NO' /

WELSPECS
--  well name    well group   I-Location    J-Location    reference depth for BHP   Preferred Phase     drainage radius for injectivity
	Well_c		1		60		60		700.450		'GAS' /
	Well_w		1		35		60		726.018		'GAS' /
	Well_e		1		85		60		724.083		'GAS' /
	Well_s		1		60		35		724.018		'GAS' /
	Well_n		1		60		85		724.083		'GAS' /
	Well_sw		1		43		42		726.195		'GAS' /
	Well_se		1		78		42		726.213		'GAS' /
	Well_nw		1		43		78		724.838		'GAS' /
	Well_ne		1		78		78		724.857		'GAS' /
/

COMPDAT      
--  well name I-Location J-Location upperK  lower K   Open flag   Saturation table number     Transmissibility factor  Wellbore diameter 
	Well_c		60		60		17		41		'OPEN'		1*		1*		0.25		3*		'Z'	/
	Well_w		35		60		17		41		'OPEN'		1*		1*		0.25		3*		'Z'	/
	Well_e		85		60		17		41		'OPEN'		1*		1*		0.25		3*		'Z'	/
	Well_s		60		35		17		41		'OPEN'		1*		1*		0.25		3*		'Z'	/
	Well_n		60		85		17		41		'OPEN'		1*		1*		0.25		3*		'Z'	/
	Well_sw		43		42		17		41		'OPEN'		1*		1*		0.25		3*		'Z'	/
	Well_se		78		42		17		41		'OPEN'		1*		1*		0.25		3*		'Z'	/
	Well_nw		43		78		17		41		'OPEN'		1*		1*		0.25		3*		'Z'	/
	Well_ne		78		78		17		41		'OPEN'		1*		1*		0.25		3*		'Z'	/
/

WELLSTRE
pureAIR	0.0	0.78	0.21	0.01/
/

WINJGAS
Well_c	STREAM	pureAIR/
Well_w	STREAM	pureAIR/
Well_e	STREAM	pureAIR/
Well_s	STREAM	pureAIR/
Well_n	STREAM	pureAIR/
Well_sw	STREAM	pureAIR/
Well_se	STREAM	pureAIR/
Well_nw	STREAM	pureAIR/
Well_ne	STREAM	pureAIR/
/





























WCONINJE
'Well_c'	'GAS'	'OPEN'	'RATE'	11111.136	1*	120/
'Well_n'	'GAS'	'OPEN'	'RATE'	11111.136	1*	120/
'Well_ne'	'GAS'	'OPEN'	'RATE'	11111.136	1*	120/
'Well_e'	'GAS'	'OPEN'	'RATE'	11111.136	1*	120/
'Well_se'	'GAS'	'OPEN'	'RATE'	11111.136	1*	120/
'Well_s'	'GAS'	'OPEN'	'RATE'	11111.136	1*	120/
'Well_sw'	'GAS'	'OPEN'	'RATE'	11111.136	1*	120/
'Well_w'	'GAS'	'OPEN'	'RATE'	11111.136	1*	120/
'Well_nw'	'GAS'	'OPEN'	'RATE'	11111.136	1*	120/
/

TSTEP
1*0.041666666666666664
/


END
