-----------------------------------------------------------------------------------------------------------
--===============
--Runspec Section
--===============
RUNSPEC

TITLE
 nusse_grd12_if_testcase

START
1 'JAN' 2015
/

DIMENS
-- Dimension of the grid - no. of cells in x, y, z direction
-- NX  NY  NZ
 280 280 33 /

METRIC

WELLDIMS
-- Well and group Dimensions
-- Number of Wells, max con. per well, groups, max number of wells per group
30 140 3 20 1* 1* 1* 1* 1* 1/

HWELLS


TABDIMS
5 1 1000 50 5 /

EQLDIMS 
1 200 200 1 20 /

REGDIMS
9/

-- Phasen im System
WATER
GAS

COMPS
-- Components 
-- H2O N2 O2 Ar
4 /


GASSOL
-- Number of gas components to dissolve in the aqueous phase
-- N2 O2 Ar
3 /

CART

--FMTIN
--FMTOUT
--Indicates that summary output files are unified
UNIFOUTS

FULLIMP

NSTACK
100/

PARALLEL
6 DISTRIBUTED /

-- END RUNSPEC
--------------------------------------------------------------

--=============
-- GRID section
--=============
GRID

GRIDFILE
2 0 /

INIT

INCLUDE
'NUSSE_GRD12.ECLGRD'
/


--To the north, 1st section: 3.5 km
BOX
10 20 280 280 10 30 /
MULTPV
231*4.5 /

--To the north, 2nd section: 6 km
BOX
21 25 280 280 10 30 /
MULTPV
105*7 /

--To the north, 3rd section: 16 km
BOX
26 279 280 280 10 30 /
MULTPV
5334*17 /

--To the east, 1st section including corner: 10 km + 16 km
BOX
280 280 280 280 10 30 /
MULTPV
21*357 /

--To the east, 2nd section: 10 km 
BOX
280 280 2 279 10 30 /
MULTPV
5838*21 /

--To the east, 3rd section including corner: 10 km + 8 km
BOX
280 280 1 1 10 30 /
MULTPV
21*189 /

--To the south, 1st section: 8 km 
BOX
268 279 1 1 10 30 /
MULTPV
252*9 /

--To the south, 2nd section: 10 km 
BOX
21 152 1 1 10 30 /
MULTPV
2772*11 /

--To the south, 3rd section: 3.5 km 
BOX
1 14 1 1 10 30 /
MULTPV
294*4.5 /

--To the west, 1st section: 12 km 
BOX
1 1 2 5 10 30 /
MULTPV
84*13 /

-- Deactivating top/bottom
EQUALS
ACTNUM	0	1	280	1	280	1	9 /
ACTNUM	0	1	280	1	280	31	33 /

-- KREIDE
PERMX 0.00001 	1 280 1 280 1 6/
PERMY 0.00001 	1 280 1 280 1 6/
PERMZ 0.00001 	1 280 1 280 1 6/
PORO 0.10  		1 280 1 280 1 6/

-- JURA
PERMX 0.00001 	1 280 1 280 7 9/
PERMY 0.00001 	1 280 1 280 7 9/
PERMZ 0.00001 	1 280 1 280 7 9/
PORO 0.10  		1 280 1 280 7 9/

-- oberes Rhaet
PERMX 1.80586 	1 280 1 280 10 12 /
PERMY 1.80586 	1 280 1 280 10 12 /
PERMZ 0.39415 	1 280 1 280 10 12 /
PORO  0.12569 	1 280 1 280 10 12 /

-- obereer Schiefer mittleres Rhaet
PERMX 120.4270 	1 280 1 280 13 17 /
PERMY 120.4270 	1 280 1 280 13 17 /
PERMZ 27.65590 	1 280 1 280 13 17 /
PORO  0.27929  	1 280 1 280 13 17 /

-- HAUPTSANDSTEIN mittleres Rhaet
PERMX 598.36100  	1 280 1 280 18 22 /
PERMY 598.36100  	1 280 1 280 18 22 /
PERMZ 318.0280 	 	1 280 1 280 18 22 /
PORO  0.33188 		1 280 1 280 18 22 /

-- unterer Schiefer mittleres Rhaet
PERMX 1.34066	1 280 1 280 23 25 /
PERMY 1.34066	1 280 1 280 23 25 /
PERMZ 0.32721	1 280 1 280 23 25 /
PORO  0.1084  	1 280 1 280 23 25 /

-- unteres Rhaet
PERMX 46.8739 	1 280 1 280 26 30 /
PERMY 46.8739 	1 280 1 280 26 30 /
PERMZ 4.94029 	1 280 1 280 26 30 /
PORO  0.15389 	1 280 1 280 26 30 /

-- unterere Keuper
PERMX 0.00001 	1 280 1 280 31 33/
PERMY 0.00001 	1 280 1 280 31 33/
PERMZ 0.00001 	1 280 1 280 31 33/
PORO 0.10  		1 280 1 280 31 33/
/


MULTIPLY
PERMX 0.22222 10 20 280 280 10 30 /
PERMY 0.22222 10 20 280 280 10 30 /
PERMZ 0.22222 10 20 280 280 10 30 /
PERMX 0.14286 21 25 280 280 10 30 /
PERMY 0.14286 21 25 280 280 10 30 /
PERMZ 0.14286 21 25 280 280 10 30 /
PERMX 0.05882 26 279 280 280 10 30 /
PERMY 0.05882 26 279 280 280 10 30 /
PERMZ 0.05882 26 279 280 280 10 30 /
PERMX 0.00280 280 280 280 280 10 30 /
PERMY 0.00280 280 280 280 280 10 30 /
PERMZ 0.00280 280 280 280 280 10 30 /
PERMX 0.04762 280 280 2 279 10 30 /
PERMY 0.04762 280 280 2 279 10 30 /
PERMZ 0.04762 280 280 2 279 10 30 /
PERMX 0.00529 280 280 1 1 10 30 /
PERMY 0.00529 280 280 1 1 10 30 /
PERMZ 0.00529 280 280 1 1 10 30 /
PERMX 0.11111 268 279 1 1 10 30 /
PERMY 0.11111 268 279 1 1 10 30 /
PERMZ 0.11111 268 279 1 1 10 30 /
PERMX 0.09091 21 152 1 1 10 30 /
PERMY 0.09091 21 152 1 1 10 30 /
PERMZ 0.09091 21 152 1 1 10 30 /
PERMX 0.22222 1 14 1 1 10 30 /
PERMY 0.22222 1 14 1 1 10 30 /
PERMZ 0.22222 1 14 1 1 10 30 /
PERMX 0.07692 1 1 2 5 10 30 /
PERMY 0.07692 1 1 2 5 10 30 /
PERMZ 0.07692 1 1 2 5 10 30 /
/


-- END GRID
-------------------------------------------------------------
--=============
-- EDIT section
--=============
EDIT

/


-- END EDIT
-------------------------------------------------------------

--==============
-- PROPS section
--==============
PROPS

CNAMES
H2O N2 O2 Ar/

EOS
PR /

ZMFVD
0       0.0	0.78 0.21 0.01
1000	0.0	0.78 0.21 0.01/

TEMPVD
1		10
1000	40
2000	70
3000	100 /

STCOND
-- Standardbedingungen (? & bar)
15.56 1.01325 /


PVTW
-- P   		Bw   			Cw			Mueh_w
--[bar]		[Rm3/Sm3]		[1/bar]		[cP]   
101			1.017894632		4.5012E-5	0.0012956/
--200.0000000000	1.0131774982	4.5E-5	0.4089591498/


DENSITY
-- for COMP run only water is needed
-- @ 10? & 1 bar
-- Oil Density    Water Density   H2 Density 
	1*            999.70         1*/

ROCK
--reference pressure    rock compressibility  
	1.0                 10E-5/

TCRIT
-- critical temperatures of each component [K]
-- Water   N2     O2       Ar
647.096	126.192	154.581	150.687/

PCRIT
-- critical pressures [bar]
-- Water   N2     O2       Ar
220.6	33.95	50.43	48.63/

VCRIT
-- taken from http://www.kayelaby.npl.co.uk/chemistry/3_5/3_5.html
-- Water   N2     O2       Ar
0.056	0.0895		0.0734	0.0746/



MW
-- molecular weights [g/mol]
-- Water	  N2 	    O2       Ar
  18.01529	28.0134	  31.9988  39.948/

ACF
-- taken from Gasem et al. 2001
-- Water	N2	O2	Ar
0.329	0.039	0.022	-0.002
/

BIC
-- to check
0.0	0.0
/

--DIFFCGAS
-- H20, N2, H2 (?)
--0.16 1.48 5.2704 /

SOLUAQA
-- Default set of pressures and corresponding solubilities at surface condition
-- P [bar] Sol [Sm3/Sm3]
-- @ 15 °C
-- 2 N2
-- 3 O2
-- 4 Ar
2 /
1	0.0166377
5	0.0835359
10	 0.165391
20	 0.323399
30	 0.474123
40	 0.617931
50	 0.755177
100	  1.35428
200	    2.222
/
3/
1	0.0333344
5	 0.167753
10	 0.333079
20	 0.654949
30	 0.965478
40	   1.2651
50	  1.55426
100	  2.85789
200	  4.91199
/
4/
1	0.0366928
5	  0.18423
10	 0.364754
20	 0.713226
30	  1.04563
40	  1.36279
50	  1.66547
100	  2.98673
200	   4.9004
/
/

INCLUDE
'NUSSE_GRD12_kr_pc_s_SC2.txt'
/

-- END PROPS
-------------------------------------------------------------

--================
-- REGIONS section
--================
REGIONS


--Oberkreide
BOX
	1	280	1 280	1	3/
FIPNUM
	235200*1/
ENDBOX

--Unterkreide
BOX
	1	280	1 280	4	6/
FIPNUM
	235200*2/
ENDBOX

--Jura
BOX
	1	280	1 280	7	9/
FIPNUM
	235200*3/
ENDBOX

--Oberes Rhaet
BOX
	1	280	1 280	10	12/
FIPNUM
	235200*4/
ENDBOX

--oberer Schiefer Mittelrhaet
BOX
	1	280	1 280	13	17/
FIPNUM
	392000*5/
ENDBOX

--HAUPTSANDSTEIN Mittelrhaet
BOX
	1	280	1 280	18	22/
FIPNUM
	392000*6/
ENDBOX

--unterer Schiefer Mittelrhaet
BOX
	1	280	1 280	23	25/
FIPNUM
	235200*7/
ENDBOX

--Unteres Rhaet
BOX
	1	280	1 280	26	30/
FIPNUM
	392000*8/
ENDBOX

--Mittlerer Keuper
BOX
	1	280	1 280	31	33/
FIPNUM
	235200*9/
ENDBOX


SATNUM
-- OK		UK     Jura     OR 		oSMR 		HSMR		uSMR		UR 			MK
235200*1 235200*1 235200*1 235200*1  392000*2	392000*3 	235200*4 	392000*5  235200*1 /

--=========
-- SOLUTION
--=========
SOLUTION

RESTART
'IF_TESTCASE_CAES' 	202 /
----------------
-- END SOLUTION
-------------------------------------------------------------


--========
-- SUMMARY
--========
SUMMARY

DATE
EXCEL
FPR
FWPR
RUNSUM
 
-- gas inj rate
WGIR
 'SW1h' 'SW2h' 'SW3h' 'SW4h' 'SW5h' 'SW6h' 'SW7h' 'SW8h' 'SW9h' 
 'SW10h' 'SW11h'/

-- bottom hole pressure
WBHP
 'SW1h' 'SW2h' 'SW3h' 'SW4h' 'SW5h' 'SW6h' 'SW7h' 'SW8h' 'SW9h' 
 'SW10h' 'SW11h'/

-- gas density at surf
WGDN
 'SW1h' 'SW2h' 'SW3h' 'SW4h' 'SW5h' 'SW6h' 'SW7h' 'SW8h' 'SW9h' 
 'SW10h' 'SW11h'/

-- well water prod rate
WWPR
 'SW1h' 'SW2h' 'SW3h' 'SW4h' 'SW5h' 'SW6h' 'SW7h' 'SW8h' 'SW9h' 
 'SW10h' 'SW11h'/
 
-- well gas prod rate
WGPR
 'SW1h' 'SW2h' 'SW3h' 'SW4h' 'SW5h' 'SW6h' 'SW7h' 'SW8h' 'SW9h' 
 'SW10h' 'SW11h'/
 

-- well gas mol frac comp 
WYMF
 'SW1h' /
 'SW2h' /
 'SW3h' /
 'SW4h' /
 'SW5h' /
 'SW6h' /
 'SW7h' /
 'SW8h' /
 'SW9h' /
 'SW10h' /
 'SW11h' /
 /

-- well liq mol frac comp 
WXMF
 'SW1h' /
 'SW2h' /
 'SW3h' /
 'SW4h' /
 'SW5h' /
 'SW6h' /
 'SW7h' /
 'SW8h' /
 'SW9h' /
 'SW10h' /
 'SW11h' /
 /

-- well tot mol frac comp 
WZMF
 'SW1h' /
 'SW2h' /
 'SW3h' /
 'SW4h' /
 'SW5h' /
 'SW6h' /
 'SW7h' /
 'SW8h' /
 'SW9h' /
 'SW10h' /
 'SW11h' /
 /
 
-- Gas in place
RGIP
/

-- END SUMMARY
-------------------------------------------------------------


--=========
-- SCHEDULE
--=========

SCHEDULE

MESSAGES
2* 100000000 10000000 4* 100000000 100000000 2* /

TUNING
/
/
1000 1*	3000	1*	1000/


RPTRST
 SGAS FREQ=1 PRES DENG DENW PGAS PWAT FLOGAS FLOWAT TEMP BASIC=3 BGAS SWAT YMF YFW XMF XFW ZMF BG/

 
WELSPECS
--  Name  Group  I-Loc J-Loc ref.depth Phase
	SW1h    1	69	189 546.11  'GAS' /
	SW2h	1	73	181 532.34  'GAS' /
	SW3h	1	74	172 518.96  'GAS' /
	SW4h	1	75	163 510.06  'GAS' /
	SW5h	1	77	153 505.64  'GAS' /
	SW6h	1	79	143 502.39  'GAS' /
	SW7h	1	79	133 489.35  'GAS' /
	SW8h	1	78	120 474.63  'GAS' /
	SW9h	1	76	106 467.26  'GAS' /
	SW10h	1	74	93  463.58  'GAS' /
	SW11h	1	72	78  482.54  'GAS' /
/


COMPDAT
--  Name I-LocJ-oc K1 K2  Satus   Sat.#  TransFac Dia 
	SW1h   69	  189  	20   20  'OPEN'  1*     1*       0.25   3*   'Z'  /
	SW1h   68	  190  	20   20  'OPEN'  1*     1*       0.25   3*   'Z'  /
	SW1h   67	  191  	20   20  'OPEN'  1*     1*       0.25   3*   'Z'  /
	SW1h   66	  192  	20   20  'OPEN'  1*     1*       0.25   3*   'Z'  /
	SW1h   65	  193  	20   20  'OPEN'  1*     1*       0.25   3*   'Z'  /
	SW1h   64	  194  	20   20  'OPEN'  1*     1*       0.25   3*   'Z'  /
	SW1h   63	  195  	20   20  'OPEN'  1*     1*       0.25   3*   'Z'  /
	SW2h   73	  181  	20   20  'OPEN'  1*     1*       0.25   3*   'Z'  /
	SW2h   73	  182  	20   20  'OPEN'  1*     1*       0.25   3*   'Z'  /
	SW2h   73	  183  	20   20  'OPEN'  1*     1*       0.25   3*   'Z'  /
	SW2h   73	  184  	20   20  'OPEN'  1*     1*       0.25   3*   'Z'  /
	SW2h   73	  185  	20   20  'OPEN'  1*     1*       0.25   3*   'Z'  /
	SW2h   73	  186  	20   20  'OPEN'  1*     1*       0.25   3*   'Z'  /
	SW2h   73	  187  	20   20  'OPEN'  1*     1*       0.25   3*   'Z'  /
	SW3h   74	  172  	20   20  'OPEN'  1*     1*       0.25   3*   'Z'  /
	SW3h   75	  173 	20   20  'OPEN'  1*     1*       0.25   3*   'Z'  /
	SW3h   76	  174  	20   20  'OPEN'  1*     1*       0.25   3*   'Z'  /
	SW3h   77	  175  	20   20  'OPEN'  1*     1*       0.25   3*   'Z'  /
	SW3h   78	  176  	20   20  'OPEN'  1*     1*       0.25   3*   'Z'  /	
	SW3h   79	  177  	20   20  'OPEN'  1*     1*       0.25   3*   'Z'  /	
	SW3h   80	  178  	20   20  'OPEN'  1*     1*       0.25   3*   'Z'  /	
	SW4h   75	  163  	20   20  'OPEN'  1*     1*       0.25   3*   'Z'  /
	SW4h   76	  164  	20   20  'OPEN'  1*     1*       0.25   3*   'Z'  /
	SW4h   77	  165  	20   20  'OPEN'  1*     1*       0.25   3*   'Z'  /
	SW4h   78	  166  	20   20  'OPEN'  1*     1*       0.25   3*   'Z'  /
	SW4h   79	  167  	20   20  'OPEN'  1*     1*       0.25   3*   'Z'  /
	SW4h   80	  168  	20   20  'OPEN'  1*     1*       0.25   3*   'Z'  /
	SW4h   81	  169  	20   20  'OPEN'  1*     1*       0.25   3*   'Z'  /
	SW5h   77	  153  	20   20  'OPEN'  1*     1*       0.25   3*   'Z'  /
	SW5h   78	  153  	20   20  'OPEN'  1*     1*       0.25   3*   'Z'  /
	SW5h   79	  153  	20   20  'OPEN'  1*     1*       0.25   3*   'Z'  /
	SW5h   80	  153  	20   20  'OPEN'  1*     1*       0.25   3*   'Z'  /
	SW5h   81	  153  	20   20  'OPEN'  1*     1*       0.25   3*   'Z'  /
	SW5h   82	  153  	20   20  'OPEN'  1*     1*       0.25   3*   'Z'  /
	SW5h   83	  153  	20   20  'OPEN'  1*     1*       0.25   3*   'Z'  /
	SW6h   79	  143  	20   20  'OPEN'  1*     1*       0.25   3*   'Z'  /
	SW6h   80	  143  	20   20  'OPEN'  1*     1*       0.25   3*   'Z'  /
	SW6h   81	  143  	20   20  'OPEN'  1*     1*       0.25   3*   'Z'  /
	SW6h   82	  143  	20   20  'OPEN'  1*     1*       0.25   3*   'Z'  /
	SW6h   83	  143  	20   20  'OPEN'  1*     1*       0.25   3*   'Z'  /
	SW6h   84	  143  	20   20  'OPEN'  1*     1*       0.25   3*   'Z'  /
	SW6h   85	  143  	20   20  'OPEN'  1*     1*       0.25   3*   'Z'  /
	SW7h   79	  133  	20   20  'OPEN'  1*     1*       0.25   3*   'Z'  /
	SW7h   80	  133  	20   20  'OPEN'  1*     1*       0.25   3*   'Z'  /
	SW7h   81	  133  	20   20  'OPEN'  1*     1*       0.25   3*   'Z'  /
	SW7h   82	  133  	20   20  'OPEN'  1*     1*       0.25   3*   'Z'  /
	SW7h   83	  133  	20   20  'OPEN'  1*     1*       0.25   3*   'Z'  /
	SW7h   84	  133  	20   20  'OPEN'  1*     1*       0.25   3*   'Z'  /
	SW7h   85	  133  	20   20  'OPEN'  1*     1*       0.25   3*   'Z'  /
	SW8h   78	  120  	20   20  'OPEN'  1*     1*       0.25   3*   'Z'  /
	SW8h   79	  120  	20   20  'OPEN'  1*     1*       0.25   3*   'Z'  /
	SW8h   80	  120  	20   20  'OPEN'  1*     1*       0.25   3*   'Z'  /
	SW8h   81	  120  	20   20  'OPEN'  1*     1*       0.25   3*   'Z'  /
	SW8h   82	  120  	20   20  'OPEN'  1*     1*       0.25   3*   'Z'  /
	SW8h   83	  120  	20   20  'OPEN'  1*     1*       0.25   3*   'Z'  /
	SW8h   84	  120  	20   20  'OPEN'  1*     1*       0.25   3*   'Z'  /
	SW9h   76	  106 	20   20  'OPEN'  1*     1*       0.25   3*   'Z'  /
	SW9h   77	  106 	20   20  'OPEN'  1*     1*       0.25   3*   'Z'  /
	SW9h   78	  106 	20   20  'OPEN'  1*     1*       0.25   3*   'Z'  /
	SW9h   79	  106 	20   20  'OPEN'  1*     1*       0.25   3*   'Z'  /
	SW9h   80	  106 	20   20  'OPEN'  1*     1*       0.25   3*   'Z'  /
	SW9h   81	  106 	20   20  'OPEN'  1*     1*       0.25   3*   'Z'  /
	SW9h   82	  106 	20   20  'OPEN'  1*     1*       0.25   3*   'Z'  /
	SW10h  74	  93 	20   20  'OPEN'  1*     1*       0.25   3*   'Z'  /
	SW10h  75	  93 	20   20  'OPEN'  1*     1*       0.25   3*   'Z'  /
	SW10h  76	  93 	20   20  'OPEN'  1*     1*       0.25   3*   'Z'  /
	SW10h  77	  93 	20   20  'OPEN'  1*     1*       0.25   3*   'Z'  /
	SW10h  78	  93 	20   20  'OPEN'  1*     1*       0.25   3*   'Z'  /
	SW10h  79	  93 	20   20  'OPEN'  1*     1*       0.25   3*   'Z'  /
	SW10h  80	  93 	20   20  'OPEN'  1*     1*       0.25   3*   'Z'  /
	SW11h  72	  78 	20   20  'OPEN'  1*     1*       0.25   3*   'Z'  /
	SW11h  73	  78 	20   20  'OPEN'  1*     1*       0.25   3*   'Z'  /
	SW11h  74	  78 	20   20  'OPEN'  1*     1*       0.25   3*   'Z'  /
	SW11h  75	  78 	20   20  'OPEN'  1*     1*       0.25   3*   'Z'  /
	SW11h  76	  78 	20   20  'OPEN'  1*     1*       0.25   3*   'Z'  /
	SW11h  77	  78 	20   20  'OPEN'  1*     1*       0.25   3*   'Z'  /
	SW11h  78	  78 	20   20  'OPEN'  1*     1*       0.25   3*   'Z'  /
/

WELLSTRE
-- Stream Name N2 O2 Ar (CRC Handbook of Chemistry and Physics, 1997 Edition)
	pureAIR	0.0 0.78 0.21 0.01/
/

-- Changing Injection Gas
WINJGAS
	SW1h	STREAM	pureAIR/
	SW2h	STREAM	pureAIR/
	SW3h	STREAM	pureAIR/
	SW4h	STREAM	pureAIR/
	SW5h	STREAM	pureAIR/
	SW6h	STREAM	pureAIR/
	SW7h	STREAM	pureAIR/
	SW8h	STREAM	pureAIR/
	SW9h	STREAM	pureAIR/
	SW10h	STREAM	pureAIR/
	SW11h	STREAM	pureAIR/
/



WCONPROD
'SW1h'	'OPEN'	'GRAT'	1*	1*	-18181.81818181818	1*	1*	47/
'SW2h'	'OPEN'	'GRAT'	1*	1*	-18181.81818181818	1*	1*	47/
'SW3h'	'OPEN'	'GRAT'	1*	1*	-18181.81818181818	1*	1*	47/
'SW4h'	'OPEN'	'GRAT'	1*	1*	-18181.81818181818	1*	1*	47/
'SW5h'	'OPEN'	'GRAT'	1*	1*	-18181.81818181818	1*	1*	47/
'SW6h'	'OPEN'	'GRAT'	1*	1*	-18181.81818181818	1*	1*	47/
'SW7h'	'OPEN'	'GRAT'	1*	1*	-18181.81818181818	1*	1*	47/
'SW8h'	'OPEN'	'GRAT'	1*	1*	-18181.81818181818	1*	1*	47/
'SW9h'	'OPEN'	'GRAT'	1*	1*	-18181.81818181818	1*	1*	47/
'SW10h'	'OPEN'	'GRAT'	1*	1*	-18181.81818181818	1*	1*	47/
'SW11h'	'OPEN'	'GRAT'	1*	1*	-18181.81818181818	1*	1*	47/
/

TSTEP
1*19
/


END
